      7   
 i =      500, time =      250.000, E =       -63.9649302331 titus /home/daniel/2-cp2k/b-ammonia/b-pbc from larger system
  N         8.3986422428        2.5008885339        4.2237645848
  H         8.3373402538        3.5049742294        4.0309254959
  H         7.6528925248        2.1770388076        4.8418383289
  H         9.2590317687        2.3879239781        4.8006208835
  O         4.9534734133        7.4805960730        5.9635696695
  H         5.7617533252        7.3322716290        5.4146111448
  H         5.0021682145        7.3798557263        7.1842673805

